365

Fe 0.0  0.0  0.0
Fe 0.0  0.5  0.5
Fe 0.5  0.0  0.5
Fe 0.5  0.5  0.0
Fe 0.0  0.0  1.0
Fe 0.0  0.5  1.5
Fe 0.5  0.0  1.5
Fe 0.5  0.5  1.0
Fe 0.0  0.0  2.0
Fe 0.0  0.5  2.5
Fe 0.5  0.0  2.5
Fe 0.5  0.5  2.0
Fe 0.0  0.0  3.0
Fe 0.0  0.5  3.5
Fe 0.5  0.0  3.5
Fe 0.5  0.5  3.0
Fe 0.0  0.0  4.0
Fe 0.5  0.5  4.0
Fe 0.0  1.0  0.0
Fe 0.0  1.5  0.5
Fe 0.5  1.0  0.5
Fe 0.5  1.5  0.0
Fe 0.0  1.0  1.0
Fe 0.0  1.5  1.5
Fe 0.5  1.0  1.5
Fe 0.5  1.5  1.0
Fe 0.0  1.0  2.0
Fe 0.0  1.5  2.5
Fe 0.5  1.0  2.5
Fe 0.5  1.5  2.0
Fe 0.0  1.0  3.0
Fe 0.0  1.5  3.5
Fe 0.5  1.0  3.5
Fe 0.5  1.5  3.0
Fe 0.0  1.0  4.0
Fe 0.0  2.0  0.0
Fe 0.0  2.5  0.5
Fe 0.5  2.0  0.5
Fe 0.5  2.5  0.0
Fe 0.0  2.0  1.0
Fe 0.0  2.5  1.5
Fe 0.5  2.0  1.5
Fe 0.5  2.5  1.0
Fe 0.0  2.0  2.0
Fe 0.5  2.0  2.5
Fe 0.0  3.0  0.0
Fe 0.5  3.0  0.5
Fe 0.0  3.0  1.0
Fe 1.0  0.0  0.0
Fe 1.0  0.5  0.5
Fe 1.5  0.0  0.5
Fe 1.5  0.5  0.0
Fe 1.0  0.0  1.0
Fe 1.0  0.5  1.5
Fe 1.5  0.0  1.5
Fe 1.5  0.5  1.0
Fe 1.0  0.0  2.0
Fe 1.0  0.5  2.5
Fe 1.5  0.0  2.5
Fe 1.5  0.5  2.0
Fe 1.0  0.0  3.0
Fe 1.0  0.5  3.5
Fe 1.5  0.0  3.5
Fe 1.5  0.5  3.0
Fe 1.0  0.0  4.0
Fe 1.5  0.5  4.0
Fe 1.0  1.0  0.0
Fe 1.0  1.5  0.5
Fe 1.5  1.0  0.5
Fe 1.5  1.5  0.0
Fe 1.0  1.0  1.0
Fe 1.0  1.5  1.5
Fe 1.5  1.0  1.5
Fe 1.5  1.5  1.0
Fe 1.0  1.0  2.0
Fe 1.0  1.5  2.5
Fe 1.5  1.0  2.5
Fe 1.5  1.5  2.0
Fe 1.0  1.0  3.0
Fe 1.5  1.0  3.5
Fe 1.5  1.5  3.0
Fe 1.0  1.0  4.0
Fe 1.0  2.0  0.0
Fe 1.0  2.5  0.5
Fe 1.5  2.0  0.5
Fe 1.5  2.5  0.0
Fe 1.0  2.0  1.0
Fe 1.0  2.5  1.5
Fe 1.5  2.0  1.5
Fe 1.5  2.5  1.0
Fe 1.0  2.0  2.0
Fe 1.0  3.0  0.0
Fe 2.0  0.0  0.0
Fe 2.0  0.5  0.5
Fe 2.5  0.0  0.5
Fe 2.5  0.5  0.0
Fe 2.0  0.0  1.0
Fe 2.0  0.5  1.5
Fe 2.5  0.0  1.5
Fe 2.5  0.5  1.0
Fe 2.0  0.0  2.0
Fe 2.0  0.5  2.5
Fe 2.5  0.0  2.5
Fe 2.5  0.5  2.0
Fe 2.0  0.0  3.0
Fe 2.0  0.5  3.5
Fe 2.5  0.0  3.5
Fe 2.5  0.5  3.0
Fe 2.0  0.0  4.0
Fe 2.5  0.5  4.0
Fe 2.0  1.0  0.0
Fe 2.0  1.5  0.5
Fe 2.5  1.0  0.5
Fe 2.5  1.5  0.0
Fe 2.0  1.0  1.0
Fe 2.0  1.5  1.5
Fe 2.5  1.0  1.5
Fe 2.5  1.5  1.0
Fe 2.0  1.0  2.0
Fe 2.0  1.5  2.5
Fe 2.5  1.0  2.5
Fe 2.5  1.5  2.0
Fe 2.0  1.0  3.0
Fe 2.5  1.0  3.5
Fe 2.0  2.0  0.0
Fe 2.0  2.5  0.5
Fe 2.5  2.0  0.5
Fe 2.5  2.5  0.0
Fe 2.0  2.0  1.0
Fe 2.5  2.0  1.5
Fe 2.0  2.0  2.0
Fe 2.0  3.0  0.0
Fe 3.0  0.0  0.0
Fe 3.0  0.5  0.5
Fe 3.5  0.0  0.5
Fe 3.5  0.5  0.0
Fe 3.0  0.0  1.0
Fe 3.0  0.5  1.5
Fe 3.5  0.0  1.5
Fe 3.5  0.5  1.0
Fe 3.0  0.0  2.0
Fe 3.0  0.5  2.5
Fe 3.5  0.0  2.5
Fe 3.5  0.5  2.0
Fe 3.0  0.0  3.0
Fe 3.0  0.5  3.5
Fe 3.5  0.0  3.5
Fe 3.5  0.5  3.0
Fe 3.0  0.0  4.0
Fe 3.5  0.5  4.0
Fe 3.0  1.0  0.0
Fe 3.0  1.5  0.5
Fe 3.5  1.0  0.5
Fe 3.5  1.5  0.0
Fe 3.0  1.0  1.0
Fe 3.0  1.5  1.5
Fe 3.5  1.0  1.5
Fe 3.5  1.5  1.0
Fe 3.0  1.0  2.0
Fe 3.0  1.5  2.5
Fe 3.5  1.0  2.5
Fe 3.5  1.5  2.0
Fe 3.0  1.0  3.0
Fe 3.0  2.0  0.0
Fe 3.0  2.5  0.5
Fe 3.5  2.0  0.5
Fe 3.5  2.5  0.0
Fe 3.0  2.0  1.0
Fe 4.0  0.0  0.0
Fe 4.0  0.5  0.5
Fe 4.0  0.0  1.0
Fe 4.0  0.5  1.5
Fe 4.0  0.0  2.0
Fe 4.0  0.5  2.5
Fe 4.0  0.0  3.0
Fe 4.0  0.5  3.5
Fe 4.0  0.0  4.0
Fe 4.0  1.0  0.0
Fe 4.0  1.5  0.5
Fe 4.0  1.0  1.0
Fe 4.0  1.5  1.5
Fe 4.0  1.0  2.0
Fe 4.0  1.0  3.0
Fe 4.0  2.0  0.0
Fe 4.0  2.0  1.0
Mn 0.5552  1.6127  3.8628
Mn -0.1825  2.58895  2.63185
Mn 0.3275  2.5531  2.169
Mn -0.1173  2.0741  3.0861
Mn -0.0852  2.67825  3.41715
Mn 0.49  2.12755  3.40855
Mn 0.4248  2.6424  2.9543
Mn -0.02  2.1634  3.8714
Mn 0.5221  2.7317  3.7396
Mn -0.4102  3.52935  0.93805
Mn 0.0998  3.4935  0.4752
Mn -0.3129  3.61865  1.72335
Mn 0.2623  3.06795  1.71475
Mn 0.1971  3.5828  1.2605
Mn -0.2477  3.1038  2.1776
Mn -0.2156  3.70795  2.50865
Mn 0.3596  3.15725  2.50005
Mn 0.2944  3.6721  2.0458
Mn -0.1504  3.1931  2.9629
Mn -0.1183  3.79725  3.29395
Mn 0.4569  3.24655  3.28535
Mn 0.3917  3.7614  2.8311
Mn -0.0531  3.2824  3.7482
Mn 0.489  3.8507  3.6164
Mn -0.4754  4.0442  0.4838
Mn 0.1319  4.09765  0.80625
Mn -0.3781  4.1335  1.2691
Mn 0.2292  4.18695  1.59155
Mn -0.2808  4.2228  2.0544
Mn 0.3265  4.27625  2.37685
Mn -0.1835  4.3121  2.8397
Mn 0.4238  4.36555  3.16215
Mn -0.0862  4.4014  3.625
Mn 1.0652  1.57685  3.39995
Mn 1.6725  1.6303  3.7224
Mn 0.9348  2.60655  2.49145
Mn 1.51  2.05585  2.48285
Mn 1.4448  2.5707  2.0286
Mn 1.0  2.0917  2.9457
Mn 1.0321  2.69585  3.27675
Mn 1.6073  2.14515  3.26815
Mn 1.5421  2.66  2.8139
Mn 1.0973  2.181  3.731
Mn 1.6394  2.7493  3.5992
Mn 0.7071  3.54695  0.79765
Mn 1.2823  2.99625  0.78905
Mn 1.2171  3.5111  0.3348
Mn 0.7723  3.0321  1.2519
Mn 0.8044  3.63625  1.58295
Mn 1.3796  3.08555  1.57435
Mn 1.3144  3.6004  1.1201
Mn 0.8696  3.1214  2.0372
Mn 0.9017  3.72555  2.36825
Mn 1.4769  3.17485  2.35965
Mn 1.4117  3.6897  1.9054
Mn 0.9669  3.2107  2.8225
Mn 0.999  3.81485  3.15355
Mn 1.5742  3.26415  3.14495
Mn 1.509  3.779  2.6907
Mn 1.0642  3.3  3.6078
Mn 1.6063  3.8683  3.476
Mn 0.6419  4.0618  0.3434
Mn 1.2492  4.11525  0.66585
Mn 0.7392  4.1511  1.1287
Mn 1.3465  4.20455  1.45115
Mn 0.8365  4.2404  1.914
Mn 1.4438  4.29385  2.23645
Mn 0.9338  4.3297  2.6993
Mn 1.5411  4.38315  3.02175
Mn 1.0311  4.419  3.4846
Mn 2.1825  1.59445  3.25955
Mn 2.6925  1.5586  2.7967
Mn 2.2477  1.0796  3.7138
Mn 2.7898  1.6479  3.582
Mn 1.9548  2.53485  1.56575
Mn 2.4648  2.499  1.1029
Mn 2.0521  2.62415  2.35105
Mn 2.6273  2.07345  2.34245
Mn 2.5621  2.5883  1.8882
Mn 2.1173  2.1093  2.8053
Mn 2.1494  2.71345  3.13635
Mn 2.7246  2.16275  3.12775
Mn 2.6594  2.6776  2.6735
Mn 2.2146  2.1986  3.5906
Mn 2.7567  2.7669  3.4588
Mn 1.8244  3.56455  0.65725
Mn 2.3996  3.01385  0.64865
Mn 2.3344  3.5287  0.1944
Mn 1.8896  3.0497  1.1115
Mn 1.9217  3.65385  1.44255
Mn 2.4969  3.10315  1.43395
Mn 2.4317  3.618  0.9797
Mn 1.9869  3.139  1.8968
Mn 2.019  3.74315  2.22785
Mn 2.5942  3.19245  2.21925
Mn 2.529  3.7073  1.765
Mn 2.0842  3.2283  2.6821
Mn 2.1163  3.83245  3.01315
Mn 2.6915  3.28175  3.00455
Mn 2.6263  3.7966  2.5503
Mn 2.1815  3.3176  3.4674
Mn 2.7236  3.8859  3.3356
Mn 1.7592  4.0794  0.203
Mn 2.3665  4.13285  0.52545
Mn 1.8565  4.1687  0.9883
Mn 2.4638  4.22215  1.31075
Mn 1.9538  4.258  1.7736
Mn 2.5611  4.31145  2.09605
Mn 2.0511  4.3473  2.5589
Mn 2.6584  4.40075  2.88135
Mn 2.1484  4.4366  3.3442
Mn 3.2998  1.61205  3.11915
Mn 3.875  1.06135  3.11055
Mn 3.8098  1.5762  2.6563
Mn 3.365  1.0972  3.5734
Mn 3.9071  1.6655  3.4416
Mn 3.0721  2.55245  1.42535
Mn 3.6473  2.00175  1.41675
Mn 3.5821  2.5166  0.9625
Mn 3.1373  2.0376  1.8796
Mn 3.1694  2.64175  2.21065
Mn 3.7446  2.09105  2.20205
Mn 3.6794  2.6059  1.7478
Mn 3.2346  2.1269  2.6649
Mn 3.2667  2.73105  2.99595
Mn 3.8419  2.18035  2.98735
Mn 3.7767  2.6952  2.5331
Mn 3.3319  2.2162  3.4502
Mn 3.874  2.7845  3.3184
Mn 2.9096  2.978  0.1858
Mn 2.9417  3.58215  0.51685
Mn 3.5169  3.03145  0.50825
Mn 3.4517  3.5463  0.054
Mn 3.0069  3.0673  0.9711
Mn 3.039  3.67145  1.30215
Mn 3.6142  3.12075  1.29355
Mn 3.549  3.6356  0.8393
Mn 3.1042  3.1566  1.7564
Mn 3.1363  3.76075  2.08745
Mn 3.7115  3.21005  2.07885
Mn 3.6463  3.7249  1.6246
Mn 3.2015  3.2459  2.5417
Mn 3.2336  3.85005  2.87275
Mn 3.8088  3.29935  2.86415
Mn 3.7436  3.8142  2.4099
Mn 3.2988  3.3352  3.327
Mn 3.8409  3.9035  3.1952
Mn 2.8765  4.097  0.0626
Mn 3.4838  4.15045  0.38505
Mn 2.9738  4.1863  0.8479
Mn 3.5811  4.23975  1.17035
Mn 3.0711  4.2756  1.6332
Mn 3.6784  4.32905  1.95565
Mn 3.1684  4.3649  2.4185
Mn 3.7757  4.41835  2.74095
Mn 3.2657  4.4542  3.2038
Mn 4.3198  1.54035  2.19345
Mn 4.4171  1.62965  2.97875
Mn 4.4823  1.1148  3.433
Mn 4.0921  2.48075  0.49965
Mn 4.1894  2.57005  1.28495
Mn 4.2546  2.0552  1.7392
Mn 4.2867  2.65935  2.07025
Mn 4.3519  2.1445  2.5245
Mn 4.384  2.74865  2.85555
Mn 4.4492  2.2338  3.3098
Mn 4.0269  2.9956  0.0454
Mn 4.059  3.59975  0.37645
Mn 4.1242  3.0849  0.8307
Mn 4.1563  3.68905  1.16175
Mn 4.2215  3.1742  1.616
Mn 4.2536  3.77835  1.94705
Mn 4.3188  3.2635  2.4013
Mn 4.3509  3.86765  2.73235
Mn 4.4161  3.3528  3.1866
Mn 3.9938  4.1146  -0.0778
Mn 4.0911  4.2039  0.7075
Mn 4.1884  4.2932  1.4928
Mn 4.2857  4.3825  2.2781
Mn 4.383  4.4718  3.0634
